Version 4
SHEET 1 2388 940
WIRE 144 -32 144 -96
WIRE 192 -32 144 -32
WIRE 272 -32 272 -96
WIRE 272 -32 256 -32
WIRE 480 -32 272 -32
WIRE 496 -32 480 -32
WIRE 736 -32 736 -64
WIRE 736 -32 576 -32
WIRE 480 0 480 -32
WIRE 576 0 576 -32
WIRE 736 0 736 -32
WIRE 736 112 736 64
WIRE 144 128 144 -32
WIRE 480 160 480 80
WIRE 576 160 576 80
WIRE 144 224 144 208
WIRE 288 224 288 192
WIRE 288 224 144 224
WIRE 144 240 144 224
WIRE -48 320 -96 320
WIRE 96 320 -48 320
WIRE 528 352 528 336
WIRE 528 352 512 352
WIRE 512 400 512 352
WIRE 576 400 576 336
WIRE -48 416 -48 400
WIRE 144 416 144 336
WIRE 144 416 -48 416
WIRE 144 432 144 416
WIRE 576 432 576 400
WIRE 512 480 512 400
WIRE 480 560 480 336
WIRE 640 560 480 560
WIRE 672 560 640 560
WIRE 784 560 752 560
WIRE 816 560 784 560
WIRE 640 592 640 560
WIRE 784 592 784 560
WIRE 640 688 640 672
WIRE 784 688 784 656
FLAG 288 128 24V
IOPIN 288 128 In
FLAG 144 432 0
FLAG -96 320 PWM
IOPIN -96 320 In
FLAG 736 -64 24V
IOPIN 736 -64 In
FLAG 736 112 0
FLAG 640 688 0
FLAG 784 688 0
FLAG 816 560 ADC
IOPIN 816 560 Out
FLAG 576 432 24V
IOPIN 576 432 In
FLAG 512 480 0
FLAG 272 -96 LED+
FLAG 144 -96 LED-
FLAG 1088 -32 LED+
FLAG 1088 352 LED-
FLAG -48 752 PWM
IOPIN -48 752 In
FLAG -144 752 24V
IOPIN -144 752 In
FLAG -144 832 0
FLAG -48 832 0
SYMBOL ind 128 112 R0
SYMATTR InstName L1
SYMBOL nmos 96 240 R0
SYMATTR InstName M1
SYMBOL res -64 304 R0
SYMATTR InstName R1
SYMBOL cap 256 -48 R90
WINDOW 0 0 32 VBottom 2
WINDOW 3 32 32 VTop 2
SYMATTR InstName C1
SYMATTR Value 100n
SYMBOL res 592 -48 R90
WINDOW 0 5 56 VBottom 2
WINDOW 3 27 56 VTop 2
SYMATTR InstName RSense
SYMBOL res 464 -16 R0
SYMATTR InstName RGT1
SYMATTR Value 4.7k
SYMBOL cap 720 0 R0
SYMATTR InstName C3
SYMATTR Value 100n
SYMBOL res 624 576 R0
SYMATTR InstName RGain
SYMBOL res 768 544 R90
WINDOW 0 5 56 VBottom 2
WINDOW 3 27 56 VTop 2
SYMATTR InstName R2
SYMBOL cap 768 592 R0
SYMATTR InstName C4
SYMBOL ZXCT1082 512 288 R270
SYMATTR InstName U1
SYMBOL cap 576 384 R90
WINDOW 0 0 32 VBottom 2
WINDOW 3 32 32 VTop 2
SYMATTR InstName C5
SYMATTR Value 100n
SYMBOL res 560 -16 R0
SYMATTR InstName RGT2
SYMATTR Value 4.7k
SYMBOL diode 1072 -32 R0
SYMATTR InstName D2
SYMBOL diode 1072 32 R0
SYMATTR InstName D3
SYMBOL diode 1072 96 R0
SYMATTR InstName D4
SYMBOL diode 1072 160 R0
SYMATTR InstName D5
SYMBOL diode 1072 224 R0
SYMATTR InstName D6
SYMBOL diode 1072 288 R0
SYMATTR InstName D7
SYMBOL voltage -144 736 R0
WINDOW 123 0 0 Left 0
WINDOW 39 0 0 Left 0
SYMATTR InstName V1
SYMATTR Value 24
SYMBOL voltage -48 736 R0
WINDOW 123 0 0 Left 0
WINDOW 39 0 0 Left 0
SYMATTR InstName V2
SYMATTR Value PULSE(0 3)
SYMBOL SS13L 304 192 R180
WINDOW 0 24 64 Left 2
WINDOW 3 24 0 Left 2
SYMATTR InstName D1
TEXT 624 200 Left 2 ;Iout = 0.004 *Vsense
TEXT -80 -408 Left 2 ;C2: recommended to be in the range of 10pF to 47pF, leadless ceramic type
TEXT -80 -376 Left 2 ;PCB Layout Considerations:\nIt  is  necessary  to  take  into  account  a  small  volt  drop  in  the  PCB  copper  and  solder  joints  to  RSENSE.\nSuch  volt  drops  can  create  noticeable  error  at  currents  of  the  order  of  1A  and  greater. The  PCB  must  be \ndesigned  to  provide  the  maximum possible copper carrying current via the sense resistor, and the traces from the\nS+ and S- pins must be connected only to the resistor pads.  In this way, the effect of the copper is minimized. \nIf used, the capacitor C2 should be placed very close the input pins S+ and S-.
TEXT 520 760 Left 2 ;Vout= VSense * RGain/ RGT
TEXT 432 -88 Left 2 ;RSense = VSense/ILoad
TEXT -80 -584 Left 2 ;Protection Against Load Short Circuit:\nIn  the  event  of  a  load  short  circuit  or  overload,  a  large  proportion  of  the  supply  voltage  may  appear\nbetween  the  sense  terminals.  The  supply  may  be  current  limited,  but  there  is  normally  a  large  reservoir\ncapacitor  which  can  deliver  enough  energy to damage the ZXCT11xx before the supply voltage falls to a\nsafe level due to current limit activation. The ZXCT11xx is rated for a maximum sense voltage of +0.8V, but \nis safe if the input current is limited to ±8.5mA.
TEXT -216 856 Left 2 !.tran 40m
