Version 4
SHEET 1 2540 940
WIRE 496 -112 448 -112
WIRE 608 -112 560 -112
WIRE 144 -32 144 -128
WIRE 192 -32 144 -32
WIRE 288 -32 288 -128
WIRE 288 -32 256 -32
WIRE 448 -32 448 -112
WIRE 448 -32 288 -32
WIRE 496 -32 448 -32
WIRE 608 -32 608 -112
WIRE 608 -32 576 -32
WIRE 736 -32 736 -64
WIRE 736 -32 608 -32
WIRE 448 0 448 -32
WIRE 736 0 736 -32
WIRE 448 112 448 80
WIRE 512 112 448 112
WIRE 608 112 608 -32
WIRE 608 112 576 112
WIRE 736 112 736 64
WIRE 144 128 144 -32
WIRE 512 192 512 112
WIRE 528 192 512 192
WIRE 576 192 576 112
WIRE 144 224 144 208
WIRE 288 224 288 192
WIRE 288 224 144 224
WIRE 144 240 144 224
WIRE 512 240 448 240
WIRE 640 240 592 240
WIRE 672 240 640 240
WIRE 784 240 752 240
WIRE 816 240 784 240
WIRE 640 272 640 240
WIRE 784 272 784 240
WIRE -48 320 -96 320
WIRE 96 320 -48 320
WIRE 448 368 448 240
WIRE 640 368 640 352
WIRE 784 368 784 336
WIRE -48 416 -48 400
WIRE 144 416 144 336
WIRE 144 416 -48 416
WIRE 144 432 144 416
WIRE 1024 464 1024 336
FLAG 288 128 24V
IOPIN 288 128 In
FLAG 144 432 0
FLAG -96 320 PWM
IOPIN -96 320 In
FLAG 736 -64 24V
IOPIN 736 -64 In
FLAG 736 112 0
FLAG 640 368 0
FLAG 784 368 0
FLAG 816 240 ADC
IOPIN 816 240 Out
FLAG 448 368 0
FLAG -576 384 24V
IOPIN -576 384 In
FLAG -576 464 0
FLAG -480 384 PWM
IOPIN -480 384 In
FLAG -480 464 0
FLAG 288 -128 LED+
FLAG 144 -128 LED-
FLAG 1024 -48 LED+
FLAG 1024 464 LED-
FLAG 448 112 S-
FLAG 608 112 S+
SYMBOL ind 128 112 R0
SYMATTR InstName L1
SYMATTR Value 680µ
SYMBOL res -64 304 R0
SYMATTR InstName R1
SYMATTR Value 100k
SYMBOL res 592 -48 R90
WINDOW 0 5 56 VBottom 2
WINDOW 3 27 56 VTop 2
SYMATTR InstName RSense
SYMATTR Value 1
SYMBOL res 432 -16 R0
SYMATTR InstName R4
SYMATTR Value 4.7k
SYMBOL cap 576 96 R90
WINDOW 0 0 32 VBottom 2
WINDOW 3 32 32 VTop 2
SYMATTR InstName C2
SYMATTR Value 10p
SYMBOL cap 720 0 R0
SYMATTR InstName C3
SYMATTR Value 100n
SYMBOL res 624 256 R0
SYMATTR InstName RGain
SYMATTR Value 1.47k
SYMBOL res 768 224 R90
WINDOW 0 5 56 VBottom 2
WINDOW 3 27 56 VTop 2
SYMATTR InstName R6
SYMATTR Value 4.7k
SYMBOL cap 768 272 R0
SYMATTR InstName C4
SYMATTR Value 1µ
SYMBOL g 608 240 R90
SYMATTR InstName G1
SYMATTR Value 0.004
SYMBOL BUK98150-55A 96 240 R0
SYMATTR InstName U1
SYMBOL voltage -576 368 R0
WINDOW 123 0 0 Left 0
WINDOW 39 0 0 Left 0
SYMATTR InstName V1
SYMATTR Value 24
SYMBOL voltage -480 368 R0
WINDOW 123 0 0 Left 0
WINDOW 39 0 0 Left 0
SYMATTR InstName V2
SYMATTR Value PULSE(0 2.5 0 0 0 {x} 0.00001)
SYMBOL LED 1008 16 R0
SYMATTR InstName D3
SYMATTR Value LXHL-BW02
SYMATTR Description Diode
SYMATTR Type diode
SYMBOL LED 1008 80 R0
SYMATTR InstName D4
SYMATTR Value LXHL-BW02
SYMATTR Description Diode
SYMATTR Type diode
SYMBOL LED 1008 144 R0
SYMATTR InstName D5
SYMATTR Value LXHL-BW02
SYMATTR Description Diode
SYMATTR Type diode
SYMBOL LED 1008 208 R0
SYMATTR InstName D6
SYMATTR Value LXHL-BW02
SYMATTR Description Diode
SYMATTR Type diode
SYMBOL LED 1008 272 R0
SYMATTR InstName D7
SYMATTR Value LXHL-BW02
SYMATTR Description Diode
SYMATTR Type diode
SYMBOL LED 1008 -48 R0
SYMATTR InstName D2
SYMATTR Value LXHL-BW02
SYMATTR Description Diode
SYMATTR Type diode
SYMBOL schottky 304 192 R180
WINDOW 0 24 64 Left 2
WINDOW 3 -65 -1 Left 2
SYMATTR InstName D1
SYMATTR Value SS13L
SYMATTR Description Diode
SYMATTR Type diode
SYMBOL cap 256 -48 R90
WINDOW 0 0 32 VBottom 2
WINDOW 3 32 32 VTop 2
SYMATTR InstName C1
SYMATTR Value 100µ
SYMBOL schottky 560 -128 R90
WINDOW 0 0 32 VBottom 2
WINDOW 3 32 32 VTop 2
SYMATTR InstName D8
SYMATTR Value SS34
SYMATTR Description Diode
SYMATTR Type diode
TEXT 600 192 Left 2 ;Iout = 0.004 *Vsense
TEXT 1192 216 Left 2 ;C2: recommended to be in the range of 10pF to 47pF, leadless ceramic type
TEXT 1192 48 Left 2 ;PCB Layout Considerations:\nIt  is  necessary  to  take  into  account  a  small  volt  drop  in  the  PCB  copper  and  solder  joints  to  RSENSE.\nSuch  volt  drops  can  create  noticeable  error  at  currents  of  the  order  of  1A  and  greater. The  PCB  must  be \ndesigned  to  provide  the  maximum possible copper carrying current via the sense resistor, and the traces from the\nS+ and S- pins must be connected only to the resistor pads.  In this way, the effect of the copper is minimized. \nIf used, the capacitor C2 should be placed very close the input pins S+ and S-.
TEXT 464 448 Left 2 ;Datasheet: RGain = Vout/(0.004*VSense)\nhere: 50% illumination 1V, 100% = 2V
TEXT 424 -184 Left 2 ;RSense = VSense/ILoad
TEXT 1192 -120 Left 2 ;Protection Against Load Short Circuit:\nIn  the  event  of  a  load  short  circuit  or  overload,  a  large  proportion  of  the  supply  voltage  may  appear\nbetween  the  sense  terminals.  The  supply  may  be  current  limited,  but  there  is  normally  a  large  reservoir\ncapacitor  which  can  deliver  enough  energy to damage the ZXCT11xx before the supply voltage falls to a\nsafe level due to current limit activation. The ZXCT11xx is rated for a maximum sense voltage of +0.8V, but \nis safe if the input current is limited to ±8.5mA.
TEXT -608 160 Left 2 !.tran 15m
TEXT 464 408 Left 2 ;fg = 1/(2 * pi * R6 * C4) = 33.86
TEXT -456 496 Left 2 ;PULSE(0 2.5 0 0 0 0.0000065 0.00001) for 10% illumination\nPULSE(0 2.5 0 0 0 0.00000745 0.00001) for 50% illumination\nPULSE(0 2.5 0 0 0 0.0000081 0.00001) for 100% illumination
TEXT -608 192 Left 2 !.step param x 0.0000065 0.0000081 0.00000016
