Version 4
SHEET 1 1640 680
WIRE 736 -944 336 -944
WIRE 976 -944 800 -944
WIRE 336 -784 336 -944
WIRE 336 -784 224 -784
WIRE 496 -784 336 -784
WIRE 592 -784 576 -784
WIRE 752 -784 752 -832
WIRE 752 -784 592 -784
WIRE 784 -784 752 -784
WIRE 864 -784 864 -832
WIRE 864 -784 848 -784
WIRE 896 -784 864 -784
WIRE 976 -784 976 -944
WIRE 1056 -784 976 -784
WIRE 336 -720 336 -784
WIRE 1488 -704 1488 -752
WIRE 496 -688 496 -784
WIRE 592 -688 592 -784
WIRE 1488 -608 1488 -640
WIRE 1488 -512 1488 -544
WIRE 592 -496 592 -512
WIRE 544 -480 544 -512
WIRE 256 -384 176 -384
WIRE 496 -368 496 -512
WIRE 1056 -368 1056 -784
WIRE 1056 -368 496 -368
WIRE 176 -320 176 -384
WIRE -192 -240 -256 -240
WIRE -112 -240 -112 -320
WIRE -112 -224 -112 -240
WIRE 80 -208 80 -240
WIRE 176 -192 176 -240
WIRE -112 -128 -112 -160
WIRE -192 0 -256 0
WIRE -64 0 -112 0
WIRE 0 0 -64 0
WIRE 160 0 80 0
WIRE 272 0 160 0
WIRE 160 16 160 0
WIRE -64 32 -64 0
WIRE 160 112 160 80
WIRE -64 160 -64 112
FLAG 80 -208 0
FLAG 80 -320 24VDC
IOPIN 80 -320 Out
FLAG 224 -784 24VDC
IOPIN 224 -784 In
FLAG 336 -656 0
FLAG 752 -832 LED+
FLAG 864 -832 LED-
FLAG 544 -480 0
FLAG 560 -176 A
FLAG -112 -128 0
FLAG 176 -192 0
FLAG 256 -384 PWM
IOPIN 256 -384 In
FLAG -256 -160 0
FLAG 1488 -752 LED+
FLAG 1488 -256 LED-
FLAG 272 0 A
FLAG 592 -496 PWM
IOPIN 592 -496 In
FLAG 160 112 0
FLAG -64 160 0
SYMBOL voltage 80 -336 R0
WINDOW 123 0 0 Left 0
WINDOW 39 0 0 Left 0
SYMATTR InstName V1
SYMATTR Value 24
SYMBOL res 480 -768 R270
WINDOW 0 32 56 VTop 2
WINDOW 3 0 56 VBottom 2
SYMATTR InstName R1
SYMATTR Value 0.3
SYMBOL cap 320 -720 R0
SYMATTR InstName C1
SYMATTR Value 10µ
SYMBOL cap 848 -800 R90
WINDOW 0 0 32 VBottom 2
WINDOW 3 32 32 VTop 2
SYMATTR InstName C2
SYMATTR Value 10µ
SYMBOL ind 880 -768 R270
WINDOW 0 32 56 VTop 2
WINDOW 3 5 56 VBottom 2
SYMATTR InstName L1
SYMATTR Value 680µ
SYMBOL schottky 800 -960 R90
WINDOW 0 -4 32 VBottom 2
WINDOW 3 36 32 VTop 2
SYMATTR InstName D1
SYMATTR Value SS13L
SYMATTR Description Zener Diode
SYMATTR Type zener
SYMBOL ZXLD1350 528 -560 R270
SYMATTR InstName U1
SYMBOL cap -128 -224 R0
SYMATTR InstName C3
SYMATTR Value 10p
SYMBOL voltage 176 -336 R0
WINDOW 123 0 0 Left 0
WINDOW 39 0 0 Left 0
SYMATTR InstName V3
SYMATTR Value PULSE(0 1.25 0 0 0 0.2m 2m)
SYMBOL res 1168 -752 R0
SYMATTR InstName R5
SYMATTR Value 50
SYMBOL res -96 -256 R90
WINDOW 0 5 56 VBottom 2
WINDOW 3 27 56 VTop 2
SYMATTR InstName R2
SYMATTR Value 4.7k
SYMBOL res -272 -256 R0
SYMATTR InstName R3
SYMATTR Value 1.3k
SYMBOL LED 1472 -704 R0
SYMATTR InstName D2
SYMATTR Value LXHL-BW02
SYMATTR Description Diode
SYMATTR Type diode
SYMBOL LED 1472 -608 R0
SYMATTR InstName D3
SYMATTR Value LXHL-BW02
SYMATTR Description Diode
SYMATTR Type diode
SYMBOL LED 1472 -512 R0
SYMATTR InstName D4
SYMATTR Value LXHL-BW02
SYMATTR Description Diode
SYMATTR Type diode
SYMBOL LED 1472 -448 R0
SYMATTR InstName D5
SYMATTR Value LXHL-BW02
SYMATTR Description Diode
SYMATTR Type diode
SYMBOL LED 1472 -384 R0
SYMATTR InstName D6
SYMATTR Value LXHL-BW02
SYMATTR Description Diode
SYMATTR Type diode
SYMBOL LED 1472 -320 R0
SYMATTR InstName D7
SYMATTR Value LXHL-BW02
SYMATTR Description Diode
SYMATTR Type diode
SYMBOL cap 144 16 R0
SYMATTR InstName C4
SYMATTR Value 10p
SYMBOL res -80 16 R0
SYMATTR InstName R4
SYMATTR Value 1.3k
SYMBOL res -96 -16 R90
WINDOW 0 0 56 VBottom 2
WINDOW 3 32 56 VTop 2
SYMATTR InstName R6
SYMATTR Value 2k
SYMBOL res -16 16 R270
WINDOW 0 27 56 VTop 2
WINDOW 3 5 56 VBottom 2
SYMATTR InstName R7
SYMATTR Value 4.7k
TEXT -144 -944 Left 2 !.tran 15m
