Version 4
SHEET 1 1060 680
WIRE 736 -944 336 -944
WIRE 976 -944 800 -944
WIRE -608 -800 -608 -848
WIRE 336 -784 336 -944
WIRE 336 -784 288 -784
WIRE 496 -784 336 -784
WIRE 592 -784 576 -784
WIRE 752 -784 752 -832
WIRE 752 -784 592 -784
WIRE 784 -784 752 -784
WIRE 864 -784 864 -832
WIRE 864 -784 848 -784
WIRE 896 -784 864 -784
WIRE 976 -784 976 -944
WIRE 1056 -784 976 -784
WIRE 336 -720 336 -784
WIRE -608 -704 -608 -736
WIRE -320 -704 -320 -736
WIRE 496 -688 496 -784
WIRE 592 -688 592 -784
WIRE -608 -608 -608 -640
WIRE -320 -496 -320 -528
WIRE 592 -496 592 -512
WIRE 544 -480 544 -512
WIRE -320 -384 -320 -416
WIRE 496 -368 496 -512
WIRE 1056 -368 1056 -784
WIRE 1056 -368 496 -368
WIRE -656 -208 -720 -208
WIRE -528 -208 -576 -208
WIRE -464 -208 -528 -208
WIRE -304 -208 -384 -208
WIRE -192 -208 -304 -208
WIRE -304 -192 -304 -208
WIRE -528 -176 -528 -208
WIRE -304 -96 -304 -128
WIRE -528 -48 -528 -96
FLAG -320 -704 0
FLAG -320 -816 24VDC
IOPIN -320 -816 Out
FLAG 224 -784 24VDC
IOPIN 224 -784 In
FLAG 336 -656 0
FLAG 752 -832 LED+
FLAG 864 -832 LED-
FLAG -608 -848 LED+
FLAG -608 -352 LED-
FLAG 544 -480 0
FLAG 592 -496 A
FLAG -192 -208 A
FLAG -720 -208 PWM
IOPIN -720 -208 In
FLAG -304 -96 0
FLAG -320 -384 0
FLAG -320 -528 PWM
IOPIN -320 -528 Out
FLAG -528 -48 0
SYMBOL voltage -320 -832 R0
WINDOW 123 0 0 Left 0
WINDOW 39 0 0 Left 0
SYMATTR InstName V1
SYMATTR Value 24
SYMBOL res 480 -768 R270
WINDOW 0 32 56 VTop 2
WINDOW 3 0 56 VBottom 2
SYMATTR InstName R1
SYMATTR Value 0.3
SYMBOL cap 320 -720 R0
SYMATTR InstName C1
SYMATTR Value 10µ
SYMBOL cap 848 -800 R90
WINDOW 0 0 32 VBottom 2
WINDOW 3 32 32 VTop 2
SYMATTR InstName C2
SYMATTR Value 10µ
SYMBOL ind 992 -800 R90
WINDOW 0 5 56 VBottom 2
WINDOW 3 32 56 VTop 2
SYMATTR InstName L1
SYMATTR Value 680µ
SYMBOL schottky 800 -960 R90
WINDOW 0 -4 32 VBottom 2
WINDOW 3 36 32 VTop 2
SYMATTR InstName D1
SYMATTR Value SS13L
SYMATTR Description Zener Diode
SYMATTR Type zener
SYMBOL LED -624 -800 R0
SYMATTR InstName D2
SYMATTR Value LXHL-BW02
SYMATTR Description Diode
SYMATTR Type diode
SYMBOL LED -624 -704 R0
SYMATTR InstName D3
SYMATTR Value LXHL-BW02
SYMATTR Description Diode
SYMATTR Type diode
SYMBOL LED -624 -608 R0
SYMATTR InstName D4
SYMATTR Value LXHL-BW02
SYMATTR Description Diode
SYMATTR Type diode
SYMBOL LED -624 -544 R0
SYMATTR InstName D5
SYMATTR Value LXHL-BW02
SYMATTR Description Diode
SYMATTR Type diode
SYMBOL ZXLD1350 528 -560 R270
SYMATTR InstName U1
SYMBOL cap -320 -192 R0
SYMATTR InstName C3
SYMATTR Value 10p
SYMBOL voltage -320 -512 R0
WINDOW 123 0 0 Left 0
WINDOW 39 0 0 Left 0
SYMATTR InstName V2
SYMATTR Value PULSE(0 3.3 0 0 0 2.5m 2.5m)
SYMBOL res -544 -192 R0
SYMATTR InstName R3
SYMATTR Value 1.3k
SYMBOL res -560 -224 R90
WINDOW 0 0 56 VBottom 2
WINDOW 3 32 56 VTop 2
SYMATTR InstName R4
SYMATTR Value 2k
SYMBOL diode 224 -768 R270
WINDOW 0 32 32 VTop 2
WINDOW 3 0 32 VBottom 2
SYMATTR InstName D6
SYMBOL LED -624 -480 R0
SYMATTR InstName D7
SYMATTR Value LXHL-BW02
SYMATTR Description Diode
SYMATTR Type diode
SYMBOL LED -624 -416 R0
SYMATTR InstName D8
SYMATTR Value LXHL-BW02
SYMATTR Description Diode
SYMATTR Type diode
SYMBOL res -480 -192 R270
WINDOW 0 27 56 VTop 2
WINDOW 3 5 56 VBottom 2
SYMATTR InstName R2
SYMATTR Value 4.7k
TEXT 144 -976 Left 2 !.tran 15m
